VERS 200000 0 0
MODE SEQ
NAME AC254-100-B AC254-100-B NEAR IR ACHROMATS: Infinite Conjugate 100
UNIT MM X W X CM MR CPMM
ENPD 25.4
WAVL 0 1 0
WAVM 1 0.5876 1
WAVM 2 0.855 1
WAVM 3 1.014 1
PWAV 2
NOTE 0 Synthetic AC254-100-B-shaped achromat prescription used as test fixture.
SURF 0
  TYPE STANDARD
  CURV 0 0 0 0 0 0 0
  DISZ INFINITY
SURF 1
  TYPE STANDARD
  COMM AC254-100-B
  CURV 0.014997 0 0 0 0 0 0
  DISZ 4.0
  GLAS N-LAK22 0 0 1.65113 36.16
  COAT THORB
  DIAM 12.7 0 0 0 1 ""
SURF 2
  TYPE STANDARD
  CURV -0.018622 0 0 0 0 0 0
  DISZ 1.5
  GLAS N-SF6HT 0 0 1.80518 25.36
  DIAM 12.7 0 0 0 1 ""
SURF 3
  TYPE STANDARD
  CURV -0.003854 0 0 0 0 0 0
  DISZ 97.09
  COAT THORBSLAH64
  DIAM 12.7 0 0 0 1 ""
SURF 4
  TYPE STANDARD
  CURV 0 0 0 0 0 0 0
  DISZ 0
  DIAM 0.0052 0 0 0 1 ""
BLNK
